REMARK  12 active torsions:
REMARK  status: ('A' for Active; 'I' for Inactive)
REMARK    1  A    between atoms: N_8  and  C_9 
REMARK    2  A    between atoms: C_9  and  C_10 
REMARK    3  A    between atoms: C_10  and  O_11 
REMARK    4  A    between atoms: C_10  and  C_12 
REMARK    5  A    between atoms: C_12  and  C_13 
REMARK    6  A    between atoms: C_12  and  N_21 
REMARK    7  A    between atoms: C_13  and  S_14 
REMARK    8  A    between atoms: S_14  and  C_15 
REMARK       I    between atoms: N_21  and  C_22 
REMARK    9  A    between atoms: C_22  and  C_24 
REMARK   10  A    between atoms: C_27  and  O_28 
REMARK   11  A    between atoms: C_32  and  C_34 
REMARK       I    between atoms: C_34  and  N_36 
REMARK   12  A    between atoms: N_36  and  C_37 
ROOT
HETATM    1  C   LIG     1      -0.137  -5.493  -2.532  1.00  0.00     0.170 C 
ENDROOT
BRANCH   1   2
HETATM    2  C   LIG     1      -0.535  -5.493  -4.037  1.00  0.00     0.307 C 
BRANCH   2   3
HETATM    3  N   LIG     1      -1.714  -6.342  -4.424  1.00  0.00     0.105 N 
HETATM    4  C   LIG     1      -1.430  -7.755  -4.148  1.00  0.00     0.278 C 
HETATM    5  C   LIG     1      -2.115  -8.813  -5.005  1.00  0.00     0.018 C 
HETATM    6  C   LIG     1      -1.748  -8.590  -6.465  1.00  0.00    -0.006 C 
HETATM    7  C   LIG     1      -3.618  -8.929  -4.749  1.00  0.00     0.007 C 
HETATM    8  C   LIG     1      -2.443  -9.607  -7.384  1.00  0.00     0.005 C 
HETATM    9  C   LIG     1      -1.928  -7.138  -6.925  1.00  0.00     0.050 C 
HETATM   10  C   LIG     1      -3.937  -9.767  -7.108  1.00  0.00     0.000 C 
HETATM   11  C   LIG     1      -4.233 -10.009  -5.632  1.00  0.00     0.000 C 
HETATM   12  C   LIG     1      -2.091  -6.046  -5.841  1.00  0.00     0.314 C 
BRANCH  12  13
HETATM   13  C   LIG     1      -3.494  -5.366  -5.946  1.00  0.00     0.252 C 
HETATM   14  O   LIG     1      -3.968  -5.075  -7.046  1.00  0.00    -0.271 OA
HETATM   15  N   LIG     1      -4.107  -5.014  -4.760  1.00  0.00    -0.351 N 
HETATM   16  H   LIG     1      -3.722  -5.462  -3.931  1.00  0.00     0.163 HD
BRANCH  15  17
HETATM   17  C   LIG     1      -5.332  -4.190  -4.663  1.00  0.00     0.022 C 
HETATM   18  C   LIG     1      -5.677  -3.967  -3.176  1.00  0.00     0.037 C 
HETATM   19  C   LIG     1      -5.113  -2.798  -5.292  1.00  0.00     0.037 C 
HETATM   20  C   LIG     1      -6.533  -4.874  -5.343  1.00  0.00     0.037 C 
ENDBRANCH  15  17
ENDBRANCH  12  13
ENDBRANCH   2   3
ENDBRANCH   1   2
BRANCH   1  21
HETATM   21  O   LIG     1       0.280  -6.803  -2.110  1.00  0.00    -0.392 OA
HETATM   22  H   LIG     1      -0.487  -7.200  -1.659  1.00  0.00     0.210 HD
ENDBRANCH   1  21
BRANCH   1  23
HETATM   23  C   LIG     1       1.041  -4.537  -2.192  1.00  0.00     0.124 C 
BRANCH  23  24
HETATM   24  C   LIG     1       0.772  -3.063  -2.502  1.00  0.00     0.107 C 
BRANCH  24  25
HETATM   25  S   LIG     1      -0.737  -2.325  -1.802  1.00  0.00    -0.128 SA
BRANCH  25  26
HETATM   26  C   LIG     1      -0.554  -0.648  -2.409  1.00  0.00     0.000 A 
HETATM   27  C   LIG     1      -1.710   0.088  -2.681  1.00  0.00     0.018 A 
HETATM   28  C   LIG     1      -1.615   1.392  -3.176  1.00  0.00     0.001 A 
HETATM   29  C   LIG     1      -0.367   1.972  -3.402  1.00  0.00     0.000 A 
HETATM   30  C   LIG     1       0.788   1.253  -3.125  1.00  0.00     0.001 A 
HETATM   31  C   LIG     1       0.693  -0.042  -2.619  1.00  0.00     0.018 A 
ENDBRANCH  25  26
ENDBRANCH  24  25
ENDBRANCH  23  24
BRANCH  23  32
HETATM   32  N   LIG     1       2.310  -4.938  -2.843  1.00  0.00    -0.349 N 
HETATM   33  C   LIG     1       3.529  -4.363  -2.530  1.00  0.00     0.252 C 
HETATM   34  O   LIG     1       3.665  -3.471  -1.687  1.00  0.00    -0.268 OA
HETATM   35  H   LIG     1       2.288  -5.841  -3.353  1.00  0.00     0.163 HD
BRANCH  33  36
HETATM   36  C   LIG     1       4.699  -4.842  -3.339  1.00  0.00     0.040 A 
HETATM   37  C   LIG     1       6.013  -4.839  -2.810  1.00  0.00    -0.013 A 
HETATM   38  C   LIG     1       6.269  -4.458  -1.373  1.00  0.00     0.052 C 
HETATM   39  C   LIG     1       7.069  -5.176  -3.666  1.00  0.00     0.072 A 
HETATM   40  C   LIG     1       6.845  -5.585  -4.981  1.00  0.00     0.037 A 
HETATM   41  C   LIG     1       5.553  -5.610  -5.492  1.00  0.00     0.004 A 
HETATM   42  C   LIG     1       4.487  -5.225  -4.687  1.00  0.00     0.018 A 
BRANCH  39  43
HETATM   43  O   LIG     1       8.383  -5.128  -3.287  1.00  0.00    -0.360 OA
HETATM   44  H   LIG     1       8.479  -4.481  -2.570  1.00  0.00     0.217 HD
ENDBRANCH  39  43
ENDBRANCH  33  36
ENDBRANCH  23  32
ENDBRANCH   1  23
TORSDOF 12
